Chaves.dss
New Line.12877176 phases=3 Bus1=56564481917148192AT Bus2=IBR12877176 r1=1e-3 r0=1e-3 x1=0.000 x0=0.000 c1=0.000 c0=0.000 Length=0.001 
New Line.12877177 phases=3 Bus1=IBR12877176 Bus2=IBR12877177 r1=1e-9 r0=1e-9 x1=0.000 x0=0.000 c1=0.000 c0=0.000 Length=0.001 
New Line.12877178 phases=3 Bus1=IBR12877177 Bus2=IBR12877178 r1=1e-3 r0=1e-3 x1=0.000 x0=0.000 c1=0.000 c0=0.000 Length=0.001 
New Line.12909976 phases=3 Bus1=61399094920245928AT Bus2=PCO12909976 r1=1e-3 r0=1e-3 x1=0.000 x0=0.000 c1=0.000 c0=0.000 Length=0.001 
New Line.12909977 phases=3 Bus1=PCO12909976 Bus2=PCO12909977 r1=1e-3 r0=1e-3 x1=0.000 x0=0.000 c1=0.000 c0=0.000 Length=0.001 
New Line.12909978 phases=3 Bus1=PCO12909977 Bus2=PCO12909978 r1=1e-9 r0=1e-9 x1=0.000 x0=0.000 c1=0.000 c0=0.000 Length=0.001 
New Line.12909979 phases=3 Bus1=PCO12909978 Bus2=61398561920244982AT r1=1e-3 r0=1e-3 x1=0.000 x0=0.000 c1=0.000 c0=0.000 Length=0.001 
New Line.12909981 phases=3 Bus1=PCO12909976 Bus2=PCO12909981 r1=1e-3 r0=1e-3 x1=0.000 x0=0.000 c1=0.000 c0=0.000 Length=0.001 
New Line.12907813 phases=3 Bus1=59632239919296920AT Bus2=ITO12907813 r1=1e-3 r0=1e-3 x1=0.000 x0=0.000 c1=0.000 c0=0.000 Length=0.001 
New Line.12907815 phases=3 Bus1=ITO12907813 Bus2=ITO12907815 r1=1e-3 r0=1e-3 x1=0.000 x0=0.000 c1=0.000 c0=0.000 Length=0.001 
New Line.12907816 phases=3 Bus1=ITO12907815 Bus2=ITO12907816 r1=1e-9 r0=1e-9 x1=0.000 x0=0.000 c1=0.000 c0=0.000 Length=0.001 
New Line.12907817 phases=3 Bus1=ITO12907816 Bus2=59632223919293947AT r1=1e-3 r0=1e-3 x1=0.000 x0=0.000 c1=0.000 c0=0.000 Length=0.001 
New Line.12907818 phases=3 Bus1=ITO12907813 Bus2=ITO12907818 r1=1e-3 r0=1e-3 x1=0.000 x0=0.000 c1=0.000 c0=0.000 Length=0.001 
New Line.12907820 phases=3 Bus1=ITO12907818 Bus2=ITO12907820 r1=1e-9 r0=1e-9 x1=0.000 x0=0.000 c1=0.000 c0=0.000 Length=0.001 
New Line.12907821 phases=3 Bus1=ITO12907820 Bus2=ITO12907821 r1=1e-3 r0=1e-3 x1=0.000 x0=0.000 c1=0.000 c0=0.000 Length=0.001 
New Line.21890819 phases=3 Bus1=PCO21890833 Bus2=PCO21890819 r1=1e-3 r0=1e-3 x1=0.000 x0=0.000 c1=0.000 c0=0.000 Length=0.001 
New Line.21890833 phases=3 Bus1=PCO12909981 Bus2=PCO21890833 r1=1e-9 r0=1e-9 x1=0.000 x0=0.000 c1=0.000 c0=0.000 Length=0.001 
New Line.265081589 phases=3 Bus1=59632239919296920AT Bus2=ITO265081589 r1=1e-3 r0=1e-3 x1=0.000 x0=0.000 c1=0.000 c0=0.000 Length=0.001 
